<?xml version="1.0" encoding="UTF-8"?>

<!-- generated on 2025-05-29 18:23:40.363506 by osmWebWizard.py v1_21_0+0000-d7b3b481c43
<configuration>
    <net-file value="C:\Users\katch\Sumo\2025-05-29-18-23-37\osm.net.xml.gz"/>
    <output-trip-file value="C:\Users\katch\Sumo\2025-05-29-18-23-37\osm.passenger.trips.xml"/>
    <route-file value="C:\Users\katch\Sumo\2025-05-29-18-23-37\osm.passenger.rou.xml"/>
    <prefix value="veh"/>
    <trip-attributes value="departLane=&quot;best&quot;"/>
    <fringe-start-attributes value="departSpeed=&quot;max&quot;"/>
    <vehicle-class value="passenger"/>
    <lanes value="True"/>
    <fringe-factor value="10"/>
    <allow-fringe.min-length value="1000.0"/>
    <via-edge-types value="highway.motorway,highway.motorway_link,highway.trunk_link,highway.primary_link,highway.secondary_link,highway.tertiary_link"/>
    <min-distance value="300.0"/>
    <min-distance.fringe value="10.0"/>
    <remove-loops value="True"/>
    <validate value="True"/>
    <insertion-density value="300.0"/>
</configuration>
-->

<!-- generated on 2025-05-29 18:23:40 by Eclipse SUMO duarouter Version 1.21.0
<duarouterConfiguration xmlns:xsi="http://www.w3.org/2001/XMLSchema-instance" xsi:noNamespaceSchemaLocation="http://sumo.dlr.de/xsd/duarouterConfiguration.xsd">

    <input>
        <net-file value="C:\Users\katch\Sumo\2025-05-29-18-23-37\osm.net.xml.gz"/>
        <route-files value="C:\Users\katch\Sumo\2025-05-29-18-23-37\osm.passenger.trips.xml"/>
    </input>

    <output>
        <output-file value="C:\Users\katch\Sumo\2025-05-29-18-23-37\osm.passenger.trips.xml.tmp"/>
        <alternatives-output value="NUL"/>
        <write-trips value="true"/>
    </output>

    <processing>
        <remove-loops value="true"/>
    </processing>

    <time>
        <begin value="0.0"/>
        <end value="3600.0"/>
    </time>

    <report>
        <no-warnings value="true"/>
        <ignore-errors value="true"/>
        <no-step-log value="true"/>
    </report>

</duarouterConfiguration>
-->

<routes xmlns:xsi="http://www.w3.org/2001/XMLSchema-instance" xsi:noNamespaceSchemaLocation="http://sumo.dlr.de/xsd/routes_file.xsd">
    <vType id="veh_passenger" vClass="passenger"/>
    <trip id="veh0" type="veh_passenger" depart="0.00" departLane="best" departSpeed="max" from="837758544#0" to="197863205#3"/>
    <trip id="veh1" type="veh_passenger" depart="6.94" departLane="best" departSpeed="max" from="14143796#0" to="197863205#3"/>
    <trip id="veh2" type="veh_passenger" depart="13.87" departLane="best" departSpeed="max" from="14143796#0" to="197863205#3"/>
    <trip id="veh3" type="veh_passenger" depart="20.81" departLane="best" departSpeed="max" from="14143796#0" to="129584648#2"/>
    <trip id="veh4" type="veh_passenger" depart="27.74" departLane="best" departSpeed="max" from="837758544#0" to="129584648#2"/>
    <trip id="veh5" type="veh_passenger" depart="34.68" departLane="best" departSpeed="max" from="837758544#0" to="-14149502#2"/>
    <trip id="veh6" type="veh_passenger" depart="41.61" departLane="best" departSpeed="max" from="-14142997#0" to="-14149502#0"/>
    <trip id="veh7" type="veh_passenger" depart="48.55" departLane="best" departSpeed="max" from="14143796#0" to="197133381#5"/>
    <trip id="veh8" type="veh_passenger" depart="55.48" departLane="best" departSpeed="max" from="837758544#0" to="197863205#3"/>
    <trip id="veh9" type="veh_passenger" depart="62.42" departLane="best" departSpeed="max" from="-14142997#0" to="197133381#5"/>
    <trip id="veh10" type="veh_passenger" depart="69.35" departLane="best" departSpeed="max" from="837758544#0" to="197863205#3"/>
    <trip id="veh11" type="veh_passenger" depart="76.29" departLane="best" departSpeed="max" from="837758544#0" to="197863205#3"/>
    <trip id="veh12" type="veh_passenger" depart="83.22" departLane="best" departSpeed="max" from="14143796#0" to="197133381#5"/>
    <trip id="veh13" type="veh_passenger" depart="90.16" departLane="best" departSpeed="max" from="837758544#0" to="129584648#2"/>
    <trip id="veh14" type="veh_passenger" depart="97.09" departLane="best" departSpeed="max" from="14143796#0" to="197133381#5"/>
    <trip id="veh15" type="veh_passenger" depart="104.03" departLane="best" departSpeed="max" from="14143796#0" to="129584648#2"/>
    <trip id="veh16" type="veh_passenger" depart="110.96" departLane="best" departSpeed="max" from="837758544#0" to="197133381#5"/>
    <trip id="veh17" type="veh_passenger" depart="117.90" departLane="best" departSpeed="max" from="837758544#0" to="197863205#3"/>
    <trip id="veh19" type="veh_passenger" depart="131.77" departLane="best" departSpeed="max" from="14143796#0" to="129584648#2"/>
    <trip id="veh20" type="veh_passenger" depart="138.70" departLane="best" departSpeed="max" from="837758544#0" to="129584648#2"/>
    <trip id="veh21" type="veh_passenger" depart="145.64" departLane="best" departSpeed="max" from="837758544#0" to="197863205#3"/>
    <trip id="veh23" type="veh_passenger" depart="159.51" departLane="best" departSpeed="max" from="14143796#0" to="129584648#2"/>
    <trip id="veh26" type="veh_passenger" depart="180.31" departLane="best" departSpeed="max" from="837758544#0" to="197133381#5"/>
    <trip id="veh28" type="veh_passenger" depart="194.18" departLane="best" departSpeed="max" from="14143796#0" to="197133381#5"/>
    <trip id="veh29" type="veh_passenger" depart="201.12" departLane="best" departSpeed="max" from="837758544#0" to="-14149502#2"/>
    <trip id="veh31" type="veh_passenger" depart="214.99" departLane="best" departSpeed="max" from="14143796#0" to="197863205#3"/>
    <trip id="veh33" type="veh_passenger" depart="228.86" departLane="best" departSpeed="max" from="837758544#0" to="129584648#2"/>
    <trip id="veh34" type="veh_passenger" depart="235.79" departLane="best" departSpeed="max" from="14143796#0" to="-14149502#0"/>
    <trip id="veh35" type="veh_passenger" depart="242.73" departLane="best" departSpeed="max" from="14143796#0" to="197863205#3"/>
    <trip id="veh36" type="veh_passenger" depart="249.66" departLane="best" departSpeed="max" from="14143796#0" to="129584648#2"/>
    <trip id="veh38" type="veh_passenger" depart="263.54" departLane="best" departSpeed="max" from="14143796#0" to="129584648#2"/>
    <trip id="veh39" type="veh_passenger" depart="270.47" departLane="best" departSpeed="max" from="14142997#0" to="1132946231"/>
    <trip id="veh40" type="veh_passenger" depart="277.41" departLane="best" departSpeed="max" from="-14142997#0" to="129584648#2"/>
    <trip id="veh41" type="veh_passenger" depart="284.34" departLane="best" departSpeed="max" from="-14142997#0" to="129584648#2"/>
    <trip id="veh42" type="veh_passenger" depart="291.28" departLane="best" departSpeed="max" from="837758544#0" to="129584648#2"/>
    <trip id="veh43" type="veh_passenger" depart="298.21" departLane="best" departSpeed="max" from="14143796#0" to="197863205#3"/>
    <trip id="veh44" type="veh_passenger" depart="305.15" departLane="best" departSpeed="max" from="837758544#0" to="197133381#5"/>
    <trip id="veh45" type="veh_passenger" depart="312.08" departLane="best" departSpeed="max" from="-1132946229" to="-14149502#2"/>
    <trip id="veh47" type="veh_passenger" depart="325.95" departLane="best" departSpeed="max" from="14143796#0" to="197863205#3"/>
    <trip id="veh48" type="veh_passenger" depart="332.89" departLane="best" departSpeed="max" from="-1132946229" to="129584648#2"/>
    <trip id="veh50" type="veh_passenger" depart="346.76" departLane="best" departSpeed="max" from="-14142997#0" to="-14149502#2"/>
    <trip id="veh51" type="veh_passenger" depart="353.69" departLane="best" departSpeed="max" from="14143796#0" to="129584648#2"/>
    <trip id="veh52" type="veh_passenger" depart="360.63" departLane="best" departSpeed="max" from="14143796#0" to="-14149502#2"/>
    <trip id="veh53" type="veh_passenger" depart="367.56" departLane="best" departSpeed="max" from="-14142997#0" to="197133381#5"/>
    <trip id="veh54" type="veh_passenger" depart="374.50" departLane="best" departSpeed="max" from="14143796#0" to="129584648#2"/>
    <trip id="veh56" type="veh_passenger" depart="388.37" departLane="best" departSpeed="max" from="14143796#0" to="197133381#5"/>
    <trip id="veh57" type="veh_passenger" depart="395.30" departLane="best" departSpeed="max" from="14142997#0" to="1132946231"/>
    <trip id="veh58" type="veh_passenger" depart="402.24" departLane="best" departSpeed="max" from="837758544#0" to="129584648#2"/>
    <trip id="veh59" type="veh_passenger" depart="409.17" departLane="best" departSpeed="max" from="14143796#0" to="197133381#5"/>
    <trip id="veh60" type="veh_passenger" depart="416.11" departLane="best" departSpeed="max" from="14143796#0" to="197863205#3"/>
    <trip id="veh62" type="veh_passenger" depart="429.98" departLane="best" departSpeed="max" from="837758544#0" to="197133381#5"/>
    <trip id="veh63" type="veh_passenger" depart="436.91" departLane="best" departSpeed="max" from="-1132946229" to="197133381#5"/>
    <trip id="veh64" type="veh_passenger" depart="443.85" departLane="best" departSpeed="max" from="14143796#0" to="197863205#3"/>
    <trip id="veh65" type="veh_passenger" depart="450.78" departLane="best" departSpeed="max" from="14143796#0" to="-14149502#0"/>
    <trip id="veh67" type="veh_passenger" depart="464.65" departLane="best" departSpeed="max" from="837758544#0" to="129584648#2"/>
    <trip id="veh69" type="veh_passenger" depart="478.52" departLane="best" departSpeed="max" from="837758544#0" to="197863205#3"/>
    <trip id="veh71" type="veh_passenger" depart="492.39" departLane="best" departSpeed="max" from="-14142997#0" to="129584648#2"/>
    <trip id="veh72" type="veh_passenger" depart="499.33" departLane="best" departSpeed="max" from="-14142997#0" to="129584648#2"/>
    <trip id="veh73" type="veh_passenger" depart="506.26" departLane="best" departSpeed="max" from="837758544#0" to="129584648#2"/>
    <trip id="veh74" type="veh_passenger" depart="513.20" departLane="best" departSpeed="max" from="837758544#0" to="197133381#5"/>
    <trip id="veh75" type="veh_passenger" depart="520.14" departLane="best" departSpeed="max" from="837758544#0" to="-14149502#0"/>
    <trip id="veh76" type="veh_passenger" depart="527.07" departLane="best" departSpeed="max" from="-14142997#0" to="129584648#2"/>
    <trip id="veh77" type="veh_passenger" depart="534.01" departLane="best" departSpeed="max" from="837758544#0" to="-14149502#0"/>
    <trip id="veh78" type="veh_passenger" depart="540.94" departLane="best" departSpeed="max" from="837758544#0" to="197863205#3"/>
    <trip id="veh79" type="veh_passenger" depart="547.88" departLane="best" departSpeed="max" from="837758544#0" to="197863205#3"/>
    <trip id="veh81" type="veh_passenger" depart="561.75" departLane="best" departSpeed="max" from="-14142997#0" to="129584648#2"/>
    <trip id="veh82" type="veh_passenger" depart="568.68" departLane="best" departSpeed="max" from="837758544#0" to="-14149502#2"/>
    <trip id="veh83" type="veh_passenger" depart="575.62" departLane="best" departSpeed="max" from="837758544#0" to="129584648#2"/>
    <trip id="veh85" type="veh_passenger" depart="589.49" departLane="best" departSpeed="max" from="837758544#0" to="197863205#3"/>
    <trip id="veh86" type="veh_passenger" depart="596.42" departLane="best" departSpeed="max" from="837758544#0" to="197863205#3"/>
    <trip id="veh87" type="veh_passenger" depart="603.36" departLane="best" departSpeed="max" from="-1132946229" to="129584648#2"/>
    <trip id="veh89" type="veh_passenger" depart="617.23" departLane="best" departSpeed="max" from="-1132946229" to="129584648#2"/>
    <trip id="veh90" type="veh_passenger" depart="624.16" departLane="best" departSpeed="max" from="-1132946229" to="129584648#2"/>
    <trip id="veh94" type="veh_passenger" depart="651.90" departLane="best" departSpeed="max" from="14143796#0" to="129584648#2"/>
    <trip id="veh95" type="veh_passenger" depart="658.84" departLane="best" departSpeed="max" from="14143796#0" to="-14149502#0"/>
    <trip id="veh97" type="veh_passenger" depart="672.71" departLane="best" departSpeed="max" from="14143796#0" to="197863205#3"/>
    <trip id="veh99" type="veh_passenger" depart="686.58" departLane="best" departSpeed="max" from="837758544#0" to="129584648#2"/>
    <trip id="veh100" type="veh_passenger" depart="693.51" departLane="best" departSpeed="max" from="-14142997#0" to="129584648#2"/>
    <trip id="veh102" type="veh_passenger" depart="707.38" departLane="best" departSpeed="max" from="-14142997#0" to="-14149502#2"/>
    <trip id="veh103" type="veh_passenger" depart="714.32" departLane="best" departSpeed="max" from="-1132946229" to="-14149502#2"/>
    <trip id="veh104" type="veh_passenger" depart="721.25" departLane="best" departSpeed="max" from="837758544#0" to="129584648#2"/>
    <trip id="veh105" type="veh_passenger" depart="728.19" departLane="best" departSpeed="max" from="837758544#0" to="129584648#2"/>
    <trip id="veh106" type="veh_passenger" depart="735.12" departLane="best" departSpeed="max" from="-14142997#0" to="197133381#5"/>
    <trip id="veh107" type="veh_passenger" depart="742.06" departLane="best" departSpeed="max" from="14143796#0" to="129584648#2"/>
    <trip id="veh108" type="veh_passenger" depart="748.99" departLane="best" departSpeed="max" from="837758544#0" to="197863205#3"/>
    <trip id="veh111" type="veh_passenger" depart="769.80" departLane="best" departSpeed="max" from="-1132946229" to="197863205#3"/>
    <trip id="veh112" type="veh_passenger" depart="776.73" departLane="best" departSpeed="max" from="14143796#0" to="129584648#2"/>
    <trip id="veh113" type="veh_passenger" depart="783.67" departLane="best" departSpeed="max" from="-14142997#0" to="-14149502#2"/>
    <trip id="veh114" type="veh_passenger" depart="790.61" departLane="best" departSpeed="max" from="-14142997#0" to="129584648#2"/>
    <trip id="veh115" type="veh_passenger" depart="797.54" departLane="best" departSpeed="max" from="14143796#0" to="-14149502#0"/>
    <trip id="veh116" type="veh_passenger" depart="804.48" departLane="best" departSpeed="max" from="14149502#0" to="14149502#2"/>
    <trip id="veh117" type="veh_passenger" depart="811.41" departLane="best" departSpeed="max" from="14143796#0" to="197863205#3"/>
    <trip id="veh118" type="veh_passenger" depart="818.35" departLane="best" departSpeed="max" from="-14142997#0" to="129584648#2"/>
    <trip id="veh119" type="veh_passenger" depart="825.28" departLane="best" departSpeed="max" from="-1132946229" to="129584648#2"/>
    <trip id="veh120" type="veh_passenger" depart="832.22" departLane="best" departSpeed="max" from="-14142997#0" to="129584648#2"/>
    <trip id="veh121" type="veh_passenger" depart="839.15" departLane="best" departSpeed="max" from="14143796#0" to="129584648#2"/>
    <trip id="veh122" type="veh_passenger" depart="846.09" departLane="best" departSpeed="max" from="837758544#0" to="129584648#2"/>
    <trip id="veh123" type="veh_passenger" depart="853.02" departLane="best" departSpeed="max" from="837758544#0" to="197133381#5"/>
    <trip id="veh124" type="veh_passenger" depart="859.96" departLane="best" departSpeed="max" from="837758544#0" to="129584648#2"/>
    <trip id="veh125" type="veh_passenger" depart="866.89" departLane="best" departSpeed="max" from="14143796#0" to="129584648#2"/>
    <trip id="veh126" type="veh_passenger" depart="873.83" departLane="best" departSpeed="max" from="14143796#0" to="197863205#3"/>
    <trip id="veh127" type="veh_passenger" depart="880.76" departLane="best" departSpeed="max" from="14143796#0" to="197133381#5"/>
    <trip id="veh128" type="veh_passenger" depart="887.70" departLane="best" departSpeed="max" from="-14142997#0" to="197133381#5"/>
    <trip id="veh129" type="veh_passenger" depart="894.63" departLane="best" departSpeed="max" from="14143796#0" to="197863205#3"/>
    <trip id="veh130" type="veh_passenger" depart="901.57" departLane="best" departSpeed="max" from="-14142997#0" to="-14149502#0"/>
    <trip id="veh131" type="veh_passenger" depart="908.50" departLane="best" departSpeed="max" from="14143796#0" to="129584648#2"/>
    <trip id="veh133" type="veh_passenger" depart="922.37" departLane="best" departSpeed="max" from="837758544#0" to="197863205#3"/>
    <trip id="veh134" type="veh_passenger" depart="929.31" departLane="best" departSpeed="max" from="14143796#0" to="129584648#2"/>
    <trip id="veh135" type="veh_passenger" depart="936.24" departLane="best" departSpeed="max" from="837758544#0" to="-14149502#0"/>
    <trip id="veh136" type="veh_passenger" depart="943.18" departLane="best" departSpeed="max" from="14143796#0" to="197863205#3"/>
    <trip id="veh137" type="veh_passenger" depart="950.11" departLane="best" departSpeed="max" from="-1132946229" to="129584648#2"/>
    <trip id="veh138" type="veh_passenger" depart="957.05" departLane="best" departSpeed="max" from="14143796#0" to="197133381#5"/>
    <trip id="veh139" type="veh_passenger" depart="963.98" departLane="best" departSpeed="max" from="837758544#0" to="-14149502#0"/>
    <trip id="veh140" type="veh_passenger" depart="970.92" departLane="best" departSpeed="max" from="-1132946229" to="197133381#5"/>
    <trip id="veh141" type="veh_passenger" depart="977.85" departLane="best" departSpeed="max" from="837758544#0" to="197863205#3"/>
    <trip id="veh142" type="veh_passenger" depart="984.79" departLane="best" departSpeed="max" from="837758544#0" to="197133381#5"/>
    <trip id="veh143" type="veh_passenger" depart="991.72" departLane="best" departSpeed="max" from="-1132946229" to="-14149502#2"/>
    <trip id="veh144" type="veh_passenger" depart="998.66" departLane="best" departSpeed="max" from="14143796#0" to="-14149502#0"/>
    <trip id="veh145" type="veh_passenger" depart="1005.59" departLane="best" departSpeed="max" from="-14142997#0" to="129584648#2"/>
    <trip id="veh146" type="veh_passenger" depart="1012.53" departLane="best" departSpeed="max" from="837758544#0" to="-14149502#2"/>
    <trip id="veh148" type="veh_passenger" depart="1026.40" departLane="best" departSpeed="max" from="837758544#0" to="197863205#3"/>
    <trip id="veh149" type="veh_passenger" depart="1033.33" departLane="best" departSpeed="max" from="837758544#0" to="197863205#3"/>
    <trip id="veh150" type="veh_passenger" depart="1040.27" departLane="best" departSpeed="max" from="14143796#0" to="197133381#5"/>
    <trip id="veh151" type="veh_passenger" depart="1047.21" departLane="best" departSpeed="max" from="14143796#0" to="197863205#3"/>
    <trip id="veh152" type="veh_passenger" depart="1054.14" departLane="best" departSpeed="max" from="14143796#0" to="129584648#2"/>
    <trip id="veh154" type="veh_passenger" depart="1068.01" departLane="best" departSpeed="max" from="14143796#0" to="197863205#3"/>
    <trip id="veh155" type="veh_passenger" depart="1074.95" departLane="best" departSpeed="max" from="-1132946229" to="197863205#3"/>
    <trip id="veh156" type="veh_passenger" depart="1081.88" departLane="best" departSpeed="max" from="-14142997#0" to="197863205#3"/>
    <trip id="veh157" type="veh_passenger" depart="1088.82" departLane="best" departSpeed="max" from="837758544#0" to="197863205#3"/>
    <trip id="veh158" type="veh_passenger" depart="1095.75" departLane="best" departSpeed="max" from="837758544#0" to="129584648#2"/>
    <trip id="veh159" type="veh_passenger" depart="1102.69" departLane="best" departSpeed="max" from="837758544#0" to="197863205#3"/>
    <trip id="veh160" type="veh_passenger" depart="1109.62" departLane="best" departSpeed="max" from="-1132946229" to="197863205#3"/>
    <trip id="veh161" type="veh_passenger" depart="1116.56" departLane="best" departSpeed="max" from="-1132946229" to="197863205#3"/>
    <trip id="veh162" type="veh_passenger" depart="1123.49" departLane="best" departSpeed="max" from="837758544#0" to="197863205#3"/>
    <trip id="veh163" type="veh_passenger" depart="1130.43" departLane="best" departSpeed="max" from="-14142997#0" to="197863205#3"/>
    <trip id="veh164" type="veh_passenger" depart="1137.36" departLane="best" departSpeed="max" from="14143796#0" to="-14149502#2"/>
    <trip id="veh165" type="veh_passenger" depart="1144.30" departLane="best" departSpeed="max" from="14142997#0" to="1132946231"/>
    <trip id="veh167" type="veh_passenger" depart="1158.17" departLane="best" departSpeed="max" from="837758544#0" to="129584648#2"/>
    <trip id="veh168" type="veh_passenger" depart="1165.10" departLane="best" departSpeed="max" from="14143796#0" to="197133381#5"/>
    <trip id="veh169" type="veh_passenger" depart="1172.04" departLane="best" departSpeed="max" from="837758544#0" to="129584648#2"/>
    <trip id="veh170" type="veh_passenger" depart="1178.97" departLane="best" departSpeed="max" from="837758544#0" to="129584648#2"/>
    <trip id="veh171" type="veh_passenger" depart="1185.91" departLane="best" departSpeed="max" from="14143796#0" to="-14149502#2"/>
    <trip id="veh172" type="veh_passenger" depart="1192.84" departLane="best" departSpeed="max" from="-14142997#0" to="197133381#5"/>
    <trip id="veh173" type="veh_passenger" depart="1199.78" departLane="best" departSpeed="max" from="837758544#0" to="197133381#5"/>
    <trip id="veh174" type="veh_passenger" depart="1206.71" departLane="best" departSpeed="max" from="837758544#0" to="129584648#2"/>
    <trip id="veh175" type="veh_passenger" depart="1213.65" departLane="best" departSpeed="max" from="14143796#0" to="197133381#5"/>
    <trip id="veh176" type="veh_passenger" depart="1220.58" departLane="best" departSpeed="max" from="-14142997#0" to="197863205#3"/>
    <trip id="veh177" type="veh_passenger" depart="1227.52" departLane="best" departSpeed="max" from="14143796#0" to="197863205#3"/>
    <trip id="veh178" type="veh_passenger" depart="1234.45" departLane="best" departSpeed="max" from="837758544#0" to="197863205#3"/>
    <trip id="veh179" type="veh_passenger" depart="1241.39" departLane="best" departSpeed="max" from="14143796#0" to="-14149502#0"/>
    <trip id="veh180" type="veh_passenger" depart="1248.32" departLane="best" departSpeed="max" from="-14142997#0" to="197863205#3"/>
    <trip id="veh181" type="veh_passenger" depart="1255.26" departLane="best" departSpeed="max" from="14143796#0" to="-14149502#2"/>
    <trip id="veh182" type="veh_passenger" depart="1262.19" departLane="best" departSpeed="max" from="837758544#0" to="197133381#5"/>
    <trip id="veh183" type="veh_passenger" depart="1269.13" departLane="best" departSpeed="max" from="14143796#0" to="129584648#2"/>
    <trip id="veh184" type="veh_passenger" depart="1276.06" departLane="best" departSpeed="max" from="-1132946229" to="197863205#3"/>
    <trip id="veh185" type="veh_passenger" depart="1283.00" departLane="best" departSpeed="max" from="837758544#0" to="197863205#3"/>
    <trip id="veh186" type="veh_passenger" depart="1289.93" departLane="best" departSpeed="max" from="837758544#0" to="197863205#3"/>
    <trip id="veh187" type="veh_passenger" depart="1296.87" departLane="best" departSpeed="max" from="837758544#0" to="129584648#2"/>
    <trip id="veh190" type="veh_passenger" depart="1317.68" departLane="best" departSpeed="max" from="-14142997#0" to="-14149502#2"/>
    <trip id="veh191" type="veh_passenger" depart="1324.61" departLane="best" departSpeed="max" from="14143796#0" to="197863205#3"/>
    <trip id="veh192" type="veh_passenger" depart="1331.55" departLane="best" departSpeed="max" from="14143796#0" to="197133381#5"/>
    <trip id="veh193" type="veh_passenger" depart="1338.48" departLane="best" departSpeed="max" from="-14142997#0" to="-14149502#2"/>
    <trip id="veh194" type="veh_passenger" depart="1345.42" departLane="best" departSpeed="max" from="-14142997#0" to="197133381#5"/>
    <trip id="veh195" type="veh_passenger" depart="1352.35" departLane="best" departSpeed="max" from="14143796#0" to="197133381#5"/>
    <trip id="veh196" type="veh_passenger" depart="1359.29" departLane="best" departSpeed="max" from="14143796#0" to="129584648#2"/>
    <trip id="veh197" type="veh_passenger" depart="1366.22" departLane="best" departSpeed="max" from="837758544#0" to="197133381#5"/>
    <trip id="veh198" type="veh_passenger" depart="1373.16" departLane="best" departSpeed="max" from="837758544#0" to="129584648#2"/>
    <trip id="veh199" type="veh_passenger" depart="1380.09" departLane="best" departSpeed="max" from="837758544#0" to="197863205#3"/>
    <trip id="veh200" type="veh_passenger" depart="1387.03" departLane="best" departSpeed="max" from="837758544#0" to="197863205#3"/>
    <trip id="veh202" type="veh_passenger" depart="1400.90" departLane="best" departSpeed="max" from="-14142997#0" to="129584648#2"/>
    <trip id="veh203" type="veh_passenger" depart="1407.83" departLane="best" departSpeed="max" from="-14142997#0" to="-14149502#2"/>
    <trip id="veh206" type="veh_passenger" depart="1428.64" departLane="best" departSpeed="max" from="14143796#0" to="129584648#2"/>
    <trip id="veh209" type="veh_passenger" depart="1449.44" departLane="best" departSpeed="max" from="14143796#0" to="129584648#2"/>
    <trip id="veh211" type="veh_passenger" depart="1463.31" departLane="best" departSpeed="max" from="-14142997#0" to="-14149502#0"/>
    <trip id="veh212" type="veh_passenger" depart="1470.25" departLane="best" departSpeed="max" from="-1132946229" to="129584648#2"/>
    <trip id="veh214" type="veh_passenger" depart="1484.12" departLane="best" departSpeed="max" from="-14142997#0" to="197133381#5"/>
    <trip id="veh215" type="veh_passenger" depart="1491.05" departLane="best" departSpeed="max" from="837758544#0" to="197863205#3"/>
    <trip id="veh216" type="veh_passenger" depart="1497.99" departLane="best" departSpeed="max" from="14143796#0" to="129584648#2"/>
    <trip id="veh217" type="veh_passenger" depart="1504.92" departLane="best" departSpeed="max" from="837758544#0" to="-14149502#0"/>
    <trip id="veh218" type="veh_passenger" depart="1511.86" departLane="best" departSpeed="max" from="837758544#0" to="197863205#3"/>
    <trip id="veh219" type="veh_passenger" depart="1518.79" departLane="best" departSpeed="max" from="-1132946229" to="197863205#3"/>
    <trip id="veh220" type="veh_passenger" depart="1525.73" departLane="best" departSpeed="max" from="837758544#0" to="129584648#2"/>
    <trip id="veh221" type="veh_passenger" depart="1532.66" departLane="best" departSpeed="max" from="837758544#0" to="197133381#5"/>
    <trip id="veh222" type="veh_passenger" depart="1539.60" departLane="best" departSpeed="max" from="14143796#0" to="129584648#2"/>
    <trip id="veh223" type="veh_passenger" depart="1546.53" departLane="best" departSpeed="max" from="14143796#0" to="197133381#5"/>
    <trip id="veh224" type="veh_passenger" depart="1553.47" departLane="best" departSpeed="max" from="837758544#0" to="129584648#2"/>
    <trip id="veh225" type="veh_passenger" depart="1560.41" departLane="best" departSpeed="max" from="837758544#0" to="129584648#2"/>
    <trip id="veh227" type="veh_passenger" depart="1574.28" departLane="best" departSpeed="max" from="837758544#0" to="197133381#5"/>
    <trip id="veh228" type="veh_passenger" depart="1581.21" departLane="best" departSpeed="max" from="14143796#0" to="197863205#3"/>
    <trip id="veh229" type="veh_passenger" depart="1588.15" departLane="best" departSpeed="max" from="-14142997#0" to="197863205#3"/>
    <trip id="veh230" type="veh_passenger" depart="1595.08" departLane="best" departSpeed="max" from="14143796#0" to="197863205#3"/>
    <trip id="veh231" type="veh_passenger" depart="1602.02" departLane="best" departSpeed="max" from="837758544#0" to="-14149502#0"/>
    <trip id="veh232" type="veh_passenger" depart="1608.95" departLane="best" departSpeed="max" from="837758544#0" to="197133381#5"/>
    <trip id="veh233" type="veh_passenger" depart="1615.89" departLane="best" departSpeed="max" from="837758544#0" to="197863205#3"/>
    <trip id="veh234" type="veh_passenger" depart="1622.82" departLane="best" departSpeed="max" from="14143796#0" to="129584648#2"/>
    <trip id="veh235" type="veh_passenger" depart="1629.76" departLane="best" departSpeed="max" from="-14142997#0" to="197863205#3"/>
    <trip id="veh236" type="veh_passenger" depart="1636.69" departLane="best" departSpeed="max" from="-1132946229" to="197133381#5"/>
    <trip id="veh237" type="veh_passenger" depart="1643.63" departLane="best" departSpeed="max" from="837758544#0" to="129584648#2"/>
    <trip id="veh238" type="veh_passenger" depart="1650.56" departLane="best" departSpeed="max" from="14143796#0" to="-14149502#0"/>
    <trip id="veh240" type="veh_passenger" depart="1664.43" departLane="best" departSpeed="max" from="-14142997#0" to="197133381#5"/>
    <trip id="veh241" type="veh_passenger" depart="1671.37" departLane="best" departSpeed="max" from="837758544#0" to="197133381#5"/>
    <trip id="veh242" type="veh_passenger" depart="1678.30" departLane="best" departSpeed="max" from="837758544#0" to="129584648#2"/>
    <trip id="veh244" type="veh_passenger" depart="1692.17" departLane="best" departSpeed="max" from="837758544#0" to="-14149502#0"/>
    <trip id="veh246" type="veh_passenger" depart="1706.04" departLane="best" departSpeed="max" from="-1132946229" to="-14149502#2"/>
    <trip id="veh247" type="veh_passenger" depart="1712.98" departLane="best" departSpeed="max" from="837758544#0" to="-14149502#0"/>
    <trip id="veh248" type="veh_passenger" depart="1719.91" departLane="best" departSpeed="max" from="14143796#0" to="197863205#3"/>
    <trip id="veh249" type="veh_passenger" depart="1726.85" departLane="best" departSpeed="max" from="837758544#0" to="129584648#2"/>
    <trip id="veh253" type="veh_passenger" depart="1754.59" departLane="best" departSpeed="max" from="14143796#0" to="197133381#5"/>
    <trip id="veh254" type="veh_passenger" depart="1761.52" departLane="best" departSpeed="max" from="837758544#0" to="129584648#2"/>