<?xml version="1.0" encoding="UTF-8"?>

<!-- generated on 2025-05-29 18:16:15.004874 by osmWebWizard.py v1_21_0+0000-d7b3b481c43
<configuration>
    <net-file value="C:\Users\katch\Sumo\2025-05-29-18-16-11\osm.net.xml.gz"/>
    <output-trip-file value="C:\Users\katch\Sumo\2025-05-29-18-16-11\osm.passenger.trips.xml"/>
    <route-file value="C:\Users\katch\Sumo\2025-05-29-18-16-11\osm.passenger.rou.xml"/>
    <prefix value="veh"/>
    <trip-attributes value="departLane=&quot;best&quot;"/>
    <fringe-start-attributes value="departSpeed=&quot;max&quot;"/>
    <vehicle-class value="passenger"/>
    <lanes value="True"/>
    <fringe-factor value="10"/>
    <allow-fringe.min-length value="1000.0"/>
    <via-edge-types value="highway.motorway,highway.motorway_link,highway.trunk_link,highway.primary_link,highway.secondary_link,highway.tertiary_link"/>
    <min-distance value="300.0"/>
    <min-distance.fringe value="10.0"/>
    <remove-loops value="True"/>
    <validate value="True"/>
    <insertion-density value="300.0"/>
</configuration>
-->

<!-- generated on 2025-05-29 18:16:14 by Eclipse SUMO duarouter Version 1.21.0
<duarouterConfiguration xmlns:xsi="http://www.w3.org/2001/XMLSchema-instance" xsi:noNamespaceSchemaLocation="http://sumo.dlr.de/xsd/duarouterConfiguration.xsd">

    <input>
        <net-file value="C:\Users\katch\Sumo\2025-05-29-18-16-11\osm.net.xml.gz"/>
        <route-files value="C:\Users\katch\Sumo\2025-05-29-18-16-11\osm.passenger.trips.xml"/>
    </input>

    <output>
        <output-file value="C:\Users\katch\Sumo\2025-05-29-18-16-11\osm.passenger.trips.xml.tmp"/>
        <alternatives-output value="NUL"/>
        <write-trips value="true"/>
    </output>

    <processing>
        <remove-loops value="true"/>
    </processing>

    <time>
        <begin value="0.0"/>
        <end value="3600.0"/>
    </time>

    <report>
        <no-warnings value="true"/>
        <ignore-errors value="true"/>
        <no-step-log value="true"/>
    </report>

</duarouterConfiguration>
-->

<routes xmlns:xsi="http://www.w3.org/2001/XMLSchema-instance" xsi:noNamespaceSchemaLocation="http://sumo.dlr.de/xsd/routes_file.xsd">
    <vType id="veh_passenger" vClass="passenger"/>
    <trip id="veh0" type="veh_passenger" depart="0.00" departLane="best" departSpeed="max" from="37720482#0" to="1058962463"/>
    <trip id="veh1" type="veh_passenger" depart="6.09" departLane="best" departSpeed="max" from="37720482#0" to="1058962463"/>
    <trip id="veh2" type="veh_passenger" depart="12.18" departLane="best" departSpeed="max" from="32236100#0" to="4239464"/>
    <trip id="veh3" type="veh_passenger" depart="18.27" departLane="best" departSpeed="max" from="32236100#0" to="32236101"/>
    <trip id="veh4" type="veh_passenger" depart="24.36" departLane="best" departSpeed="max" from="32236100#0" to="32236101"/>
    <trip id="veh5" type="veh_passenger" depart="30.46" departLane="best" departSpeed="max" from="37720482#0" to="204441762"/>
    <trip id="veh6" type="veh_passenger" depart="36.55" departLane="best" departSpeed="max" from="235405527#0" to="204441762"/>
    <trip id="veh7" type="veh_passenger" depart="42.64" departLane="best" departSpeed="max" from="32236100#0" to="32236101"/>
    <trip id="veh8" type="veh_passenger" depart="48.73" departLane="best" departSpeed="max" from="37720482#0" to="1058962463"/>
    <trip id="veh9" type="veh_passenger" depart="54.82" departLane="best" departSpeed="max" from="32236100#0" to="4239464"/>
    <trip id="veh10" type="veh_passenger" depart="60.91" departLane="best" departSpeed="max" from="235405527#0" to="204441762"/>
    <trip id="veh11" type="veh_passenger" depart="67.00" departLane="best" departSpeed="max" from="1342428206" to="204441762"/>
    <trip id="veh12" type="veh_passenger" depart="73.09" departLane="best" departSpeed="max" from="37720482#0" to="1058962463"/>
    <trip id="veh13" type="veh_passenger" depart="79.18" departLane="best" departSpeed="max" from="235405527#0" to="32236101"/>
    <trip id="veh14" type="veh_passenger" depart="85.27" departLane="best" departSpeed="max" from="235405527#0" to="1058962463"/>
    <trip id="veh15" type="veh_passenger" depart="91.37" departLane="best" departSpeed="max" from="1342428206" to="4239464"/>
    <trip id="veh16" type="veh_passenger" depart="97.46" departLane="best" departSpeed="max" from="32236100#0" to="4239464"/>
    <trip id="veh17" type="veh_passenger" depart="103.55" departLane="best" departSpeed="max" from="1342428206" to="4239464"/>
    <trip id="veh18" type="veh_passenger" depart="109.64" departLane="best" departSpeed="max" from="32236100#0" to="204441762"/>
    <trip id="veh19" type="veh_passenger" depart="115.73" departLane="best" departSpeed="max" from="235405527#0" to="204441762"/>
    <trip id="veh20" type="veh_passenger" depart="121.82" departLane="best" departSpeed="max" from="37720482#0" to="204441762"/>
    <trip id="veh21" type="veh_passenger" depart="127.91" departLane="best" departSpeed="max" from="235405527#0" to="1058962463"/>
    <trip id="veh22" type="veh_passenger" depart="134.00" departLane="best" departSpeed="max" from="1342428206" to="32236101"/>
    <trip id="veh23" type="veh_passenger" depart="140.09" departLane="best" departSpeed="max" from="32236100#0" to="204441762"/>
    <trip id="veh24" type="veh_passenger" depart="146.19" departLane="best" departSpeed="max" from="32236100#0" to="204441762"/>
    <trip id="veh25" type="veh_passenger" depart="152.28" departLane="best" departSpeed="max" from="37720482#0" to="204441762"/>
    <trip id="veh26" type="veh_passenger" depart="158.37" departLane="best" departSpeed="max" from="37720482#0" to="204441762"/>
    <trip id="veh27" type="veh_passenger" depart="164.46" departLane="best" departSpeed="max" from="37720482#0" to="32236101"/>
    <trip id="veh28" type="veh_passenger" depart="170.55" departLane="best" departSpeed="max" from="1342428206" to="204441762"/>
    <trip id="veh29" type="veh_passenger" depart="176.64" departLane="best" departSpeed="max" from="37720482#0" to="1058962463"/>
    <trip id="veh30" type="veh_passenger" depart="182.73" departLane="best" departSpeed="max" from="235405527#0" to="32236101"/>
    <trip id="veh31" type="veh_passenger" depart="188.82" departLane="best" departSpeed="max" from="37720482#0" to="204441762"/>
    <trip id="veh32" type="veh_passenger" depart="194.91" departLane="best" departSpeed="max" from="32236100#0" to="4239464"/>
    <trip id="veh33" type="veh_passenger" depart="201.01" departLane="best" departSpeed="max" from="1342428206" to="1058962463"/>
    <trip id="veh34" type="veh_passenger" depart="207.10" departLane="best" departSpeed="max" from="32236100#0" to="204441762"/>
    <trip id="veh35" type="veh_passenger" depart="213.19" departLane="best" departSpeed="max" from="37720482#0" to="4239464"/>
    <trip id="veh36" type="veh_passenger" depart="219.28" departLane="best" departSpeed="max" from="235405527#0" to="1058962463"/>
    <trip id="veh37" type="veh_passenger" depart="225.37" departLane="best" departSpeed="max" from="235405527#0" to="4239464"/>
    <trip id="veh38" type="veh_passenger" depart="231.46" departLane="best" departSpeed="max" from="1342428206" to="204441762"/>
    <trip id="veh39" type="veh_passenger" depart="237.55" departLane="best" departSpeed="max" from="32236100#0" to="4239464"/>
    <trip id="veh40" type="veh_passenger" depart="243.64" departLane="best" departSpeed="max" from="1342428206" to="32236101"/>
    <trip id="veh41" type="veh_passenger" depart="249.73" departLane="best" departSpeed="max" from="32236100#0" to="204441762"/>
    <trip id="veh42" type="veh_passenger" depart="255.82" departLane="best" departSpeed="max" from="1342428206" to="4239464"/>
    <trip id="veh43" type="veh_passenger" depart="261.92" departLane="best" departSpeed="max" from="1342428206" to="4239464"/>
    <trip id="veh44" type="veh_passenger" depart="268.01" departLane="best" departSpeed="max" from="235405527#0" to="1058962463"/>
    <trip id="veh45" type="veh_passenger" depart="274.10" departLane="best" departSpeed="max" from="37720482#0" to="32236101"/>
    <trip id="veh46" type="veh_passenger" depart="280.19" departLane="best" departSpeed="max" from="32236100#0" to="32236101"/>
    <trip id="veh47" type="veh_passenger" depart="286.28" departLane="best" departSpeed="max" from="235405527#0" to="204441762"/>
    <trip id="veh48" type="veh_passenger" depart="292.37" departLane="best" departSpeed="max" from="235405527#0" to="1058962463"/>
    <trip id="veh49" type="veh_passenger" depart="298.46" departLane="best" departSpeed="max" from="1342428206" to="204441762"/>
    <trip id="veh50" type="veh_passenger" depart="304.55" departLane="best" departSpeed="max" from="37720482#0" to="204441762"/>
    <trip id="veh51" type="veh_passenger" depart="310.64" departLane="best" departSpeed="max" from="37720482#0" to="4239464"/>
    <trip id="veh52" type="veh_passenger" depart="316.74" departLane="best" departSpeed="max" from="1342428206" to="4239464"/>
    <trip id="veh53" type="veh_passenger" depart="322.83" departLane="best" departSpeed="max" from="1342428206" to="1058962463"/>
    <trip id="veh54" type="veh_passenger" depart="328.92" departLane="best" departSpeed="max" from="235405527#0" to="4239464"/>
    <trip id="veh55" type="veh_passenger" depart="335.01" departLane="best" departSpeed="max" from="37720482#0" to="32236101"/>
    <trip id="veh56" type="veh_passenger" depart="341.10" departLane="best" departSpeed="max" from="32236100#0" to="4239464"/>
    <trip id="veh57" type="veh_passenger" depart="347.19" departLane="best" departSpeed="max" from="235405527#0" to="1058962463"/>
    <trip id="veh58" type="veh_passenger" depart="353.28" departLane="best" departSpeed="max" from="32236100#0" to="204441762"/>
    <trip id="veh59" type="veh_passenger" depart="359.37" departLane="best" departSpeed="max" from="235405527#0" to="4239464"/>
    <trip id="veh60" type="veh_passenger" depart="365.46" departLane="best" departSpeed="max" from="1342428206" to="204441762"/>
    <trip id="veh61" type="veh_passenger" depart="371.55" departLane="best" departSpeed="max" from="235405527#0" to="4239464"/>
    <trip id="veh62" type="veh_passenger" depart="377.65" departLane="best" departSpeed="max" from="37720482#0" to="4239464"/>
    <trip id="veh63" type="veh_passenger" depart="383.74" departLane="best" departSpeed="max" from="1342428206" to="204441762"/>
    <trip id="veh64" type="veh_passenger" depart="389.83" departLane="best" departSpeed="max" from="235405527#0" to="32236101"/>
    <trip id="veh65" type="veh_passenger" depart="395.92" departLane="best" departSpeed="max" from="1342428206" to="4239464"/>
    <trip id="veh66" type="veh_passenger" depart="402.01" departLane="best" departSpeed="max" from="37720482#0" to="204441762"/>
    <trip id="veh67" type="veh_passenger" depart="408.10" departLane="best" departSpeed="max" from="32236100#0" to="204441762"/>
    <trip id="veh68" type="veh_passenger" depart="414.19" departLane="best" departSpeed="max" from="235405527#0" to="1058962463"/>
    <trip id="veh69" type="veh_passenger" depart="420.28" departLane="best" departSpeed="max" from="37720482#0" to="32236101"/>
    <trip id="veh70" type="veh_passenger" depart="426.37" departLane="best" departSpeed="max" from="235405527#0" to="1058962463"/>
    <trip id="veh71" type="veh_passenger" depart="432.47" departLane="best" departSpeed="max" from="1342428206" to="32236101"/>
    <trip id="veh72" type="veh_passenger" depart="438.56" departLane="best" departSpeed="max" from="235405527#0" to="204441762"/>
    <trip id="veh73" type="veh_passenger" depart="444.65" departLane="best" departSpeed="max" from="32236100#0" to="4239464"/>
    <trip id="veh74" type="veh_passenger" depart="450.74" departLane="best" departSpeed="max" from="37720482#0" to="4239464"/>
    <trip id="veh75" type="veh_passenger" depart="456.83" departLane="best" departSpeed="max" from="37720482#0" to="204441762"/>
    <trip id="veh76" type="veh_passenger" depart="462.92" departLane="best" departSpeed="max" from="32236100#0" to="1058962463"/>
    <trip id="veh77" type="veh_passenger" depart="469.01" departLane="best" departSpeed="max" from="37720482#0" to="4239464"/>
    <trip id="veh78" type="veh_passenger" depart="475.10" departLane="best" departSpeed="max" from="32236100#0" to="1058962463"/>
    <trip id="veh79" type="veh_passenger" depart="481.19" departLane="best" departSpeed="max" from="32236100#0" to="4239464"/>
    <trip id="veh80" type="veh_passenger" depart="487.28" departLane="best" departSpeed="max" from="1342428206" to="1058962463"/>
    <trip id="veh81" type="veh_passenger" depart="493.38" departLane="best" departSpeed="max" from="235405527#0" to="4239464"/>
    <trip id="veh82" type="veh_passenger" depart="499.47" departLane="best" departSpeed="max" from="235405527#0" to="4239464"/>
    <trip id="veh83" type="veh_passenger" depart="505.56" departLane="best" departSpeed="max" from="37720482#0" to="4239464"/>
    <trip id="veh84" type="veh_passenger" depart="511.65" departLane="best" departSpeed="max" from="32236100#0" to="1058962463"/>
    <trip id="veh85" type="veh_passenger" depart="517.74" departLane="best" departSpeed="max" from="235405527#0" to="1058962463"/>
    <trip id="veh86" type="veh_passenger" depart="523.83" departLane="best" departSpeed="max" from="37720482#0" to="4239464"/>
    <trip id="veh87" type="veh_passenger" depart="529.92" departLane="best" departSpeed="max" from="235405527#0" to="4239464"/>
    <trip id="veh88" type="veh_passenger" depart="536.01" departLane="best" departSpeed="max" from="235405527#0" to="4239464"/>
    <trip id="veh89" type="veh_passenger" depart="542.10" departLane="best" departSpeed="max" from="1342428206" to="1058962463"/>
    <trip id="veh90" type="veh_passenger" depart="548.20" departLane="best" departSpeed="max" from="37720482#0" to="4239464"/>
    <trip id="veh91" type="veh_passenger" depart="554.29" departLane="best" departSpeed="max" from="37720482#0" to="4239464"/>
    <trip id="veh92" type="veh_passenger" depart="560.38" departLane="best" departSpeed="max" from="32236100#0" to="4239464"/>
    <trip id="veh93" type="veh_passenger" depart="566.47" departLane="best" departSpeed="max" from="235405527#0" to="1058962463"/>
    <trip id="veh94" type="veh_passenger" depart="572.56" departLane="best" departSpeed="max" from="1342428206" to="1058962463"/>
    <trip id="veh95" type="veh_passenger" depart="578.65" departLane="best" departSpeed="max" from="1342428206" to="1058962463"/>
    <trip id="veh96" type="veh_passenger" depart="584.74" departLane="best" departSpeed="max" from="235405527#0" to="4239464"/>
    <trip id="veh97" type="veh_passenger" depart="590.83" departLane="best" departSpeed="max" from="1342428206" to="4239464"/>
    <trip id="veh98" type="veh_passenger" depart="596.92" departLane="best" departSpeed="max" from="32236100#0" to="32236101"/>
    <trip id="veh99" type="veh_passenger" depart="603.02" departLane="best" departSpeed="max" from="37720482#0" to="32236101"/>
    <trip id="veh100" type="veh_passenger" depart="609.11" departLane="best" departSpeed="max" from="1342428206" to="204441762"/>
    <trip id="veh101" type="veh_passenger" depart="615.20" departLane="best" departSpeed="max" from="235405527#0" to="1058962463"/>
    <trip id="veh102" type="veh_passenger" depart="621.29" departLane="best" departSpeed="max" from="37720482#0" to="32236101"/>
    <trip id="veh103" type="veh_passenger" depart="627.38" departLane="best" departSpeed="max" from="235405527#0" to="1058962463"/>
    <trip id="veh104" type="veh_passenger" depart="633.47" departLane="best" departSpeed="max" from="235405527#0" to="204441762"/>
    <trip id="veh105" type="veh_passenger" depart="639.56" departLane="best" departSpeed="max" from="37720482#0" to="4239464"/>
    <trip id="veh106" type="veh_passenger" depart="645.65" departLane="best" departSpeed="max" from="37720482#0" to="32236101"/>
    <trip id="veh107" type="veh_passenger" depart="651.74" departLane="best" departSpeed="max" from="1342428206" to="4239464"/>
    <trip id="veh108" type="veh_passenger" depart="657.83" departLane="best" departSpeed="max" from="32236100#0" to="204441762"/>
    <trip id="veh109" type="veh_passenger" depart="663.93" departLane="best" departSpeed="max" from="37720482#0" to="4239464"/>
    <trip id="veh110" type="veh_passenger" depart="670.02" departLane="best" departSpeed="max" from="235405527#0" to="32236101"/>
    <trip id="veh111" type="veh_passenger" depart="676.11" departLane="best" departSpeed="max" from="37720482#0" to="1058962463"/>
    <trip id="veh112" type="veh_passenger" depart="682.20" departLane="best" departSpeed="max" from="32236100#0" to="4239464"/>
    <trip id="veh113" type="veh_passenger" depart="688.29" departLane="best" departSpeed="max" from="37720482#0" to="32236101"/>
    <trip id="veh114" type="veh_passenger" depart="694.38" departLane="best" departSpeed="max" from="1342428206" to="32236101"/>
    <trip id="veh115" type="veh_passenger" depart="700.47" departLane="best" departSpeed="max" from="235405527#0" to="32236101"/>
    <trip id="veh116" type="veh_passenger" depart="706.56" departLane="best" departSpeed="max" from="1342428206" to="1058962463"/>
    <trip id="veh117" type="veh_passenger" depart="712.65" departLane="best" departSpeed="max" from="235405527#0" to="4239464"/>
    <trip id="veh118" type="veh_passenger" depart="718.75" departLane="best" departSpeed="max" from="32236100#0" to="4239464"/>
    <trip id="veh119" type="veh_passenger" depart="724.84" departLane="best" departSpeed="max" from="37720482#0" to="1058962463"/>
    <trip id="veh120" type="veh_passenger" depart="730.93" departLane="best" departSpeed="max" from="37720482#0" to="4239464"/>
    <trip id="veh121" type="veh_passenger" depart="737.02" departLane="best" departSpeed="max" from="32236100#0" to="4239464"/>
    <trip id="veh122" type="veh_passenger" depart="743.11" departLane="best" departSpeed="max" from="235405527#0" to="32236101"/>
    <trip id="veh123" type="veh_passenger" depart="749.20" departLane="best" departSpeed="max" from="32236100#0" to="4239464"/>
    <trip id="veh124" type="veh_passenger" depart="755.29" departLane="best" departSpeed="max" from="1342428206" to="32236101"/>
    <trip id="veh125" type="veh_passenger" depart="761.38" departLane="best" departSpeed="max" from="235405527#0" to="4239464"/>
    <trip id="veh126" type="veh_passenger" depart="767.47" departLane="best" departSpeed="max" from="37720482#0" to="32236101"/>
    <trip id="veh127" type="veh_passenger" depart="773.56" departLane="best" departSpeed="max" from="1342428206" to="204441762"/>
    <trip id="veh128" type="veh_passenger" depart="779.66" departLane="best" departSpeed="max" from="235405527#0" to="1058962463"/>
    <trip id="veh129" type="veh_passenger" depart="785.75" departLane="best" departSpeed="max" from="37720482#0" to="4239464"/>
    <trip id="veh130" type="veh_passenger" depart="791.84" departLane="best" departSpeed="max" from="235405527#0" to="4239464"/>
    <trip id="veh131" type="veh_passenger" depart="797.93" departLane="best" departSpeed="max" from="37720482#0" to="4239464"/>
    <trip id="veh132" type="veh_passenger" depart="804.02" departLane="best" departSpeed="max" from="235405527#0" to="204441762"/>
    <trip id="veh133" type="veh_passenger" depart="810.11" departLane="best" departSpeed="max" from="32236100#0" to="4239464"/>
    <trip id="veh134" type="veh_passenger" depart="816.20" departLane="best" departSpeed="max" from="1342428206" to="32236101"/>
    <trip id="veh135" type="veh_passenger" depart="822.29" departLane="best" departSpeed="max" from="235405527#0" to="32236101"/>
    <trip id="veh136" type="veh_passenger" depart="828.38" departLane="best" departSpeed="max" from="235405527#0" to="4239464"/>
    <trip id="veh137" type="veh_passenger" depart="834.48" departLane="best" departSpeed="max" from="32236100#0" to="1058962463"/>
    <trip id="veh138" type="veh_passenger" depart="840.57" departLane="best" departSpeed="max" from="1342428206" to="32236101"/>
    <trip id="veh139" type="veh_passenger" depart="846.66" departLane="best" departSpeed="max" from="37720482#0" to="1058962463"/>
    <trip id="veh140" type="veh_passenger" depart="852.75" departLane="best" departSpeed="max" from="235405527#0" to="204441762"/>
    <trip id="veh141" type="veh_passenger" depart="858.84" departLane="best" departSpeed="max" from="32236100#0" to="32236101"/>
    <trip id="veh142" type="veh_passenger" depart="864.93" departLane="best" departSpeed="max" from="235405527#0" to="32236101"/>
    <trip id="veh143" type="veh_passenger" depart="871.02" departLane="best" departSpeed="max" from="37720482#0" to="32236101"/>
    <trip id="veh144" type="veh_passenger" depart="877.11" departLane="best" departSpeed="max" from="37720482#0" to="204441762"/>
    <trip id="veh145" type="veh_passenger" depart="883.20" departLane="best" departSpeed="max" from="37720482#0" to="1058962463"/>
    <trip id="veh146" type="veh_passenger" depart="889.29" departLane="best" departSpeed="max" from="235405527#0" to="204441762"/>
    <trip id="veh147" type="veh_passenger" depart="895.39" departLane="best" departSpeed="max" from="235405527#0" to="4239464"/>
    <trip id="veh148" type="veh_passenger" depart="901.48" departLane="best" departSpeed="max" from="235405527#0" to="1058962463"/>
    <trip id="veh149" type="veh_passenger" depart="907.57" departLane="best" departSpeed="max" from="32236100#0" to="1058962463"/>
    <trip id="veh150" type="veh_passenger" depart="913.66" departLane="best" departSpeed="max" from="37720482#0" to="32236101"/>
    <trip id="veh151" type="veh_passenger" depart="919.75" departLane="best" departSpeed="max" from="1342428206" to="4239464"/>
    <trip id="veh152" type="veh_passenger" depart="925.84" departLane="best" departSpeed="max" from="37720482#0" to="204441762"/>
    <trip id="veh153" type="veh_passenger" depart="931.93" departLane="best" departSpeed="max" from="235405527#0" to="32236101"/>
    <trip id="veh154" type="veh_passenger" depart="938.02" departLane="best" departSpeed="max" from="235405527#0" to="204441762"/>
    <trip id="veh155" type="veh_passenger" depart="944.11" departLane="best" departSpeed="max" from="37720482#0" to="32236101"/>
    <trip id="veh156" type="veh_passenger" depart="950.21" departLane="best" departSpeed="max" from="235405527#0" to="204441762"/>
    <trip id="veh157" type="veh_passenger" depart="956.30" departLane="best" departSpeed="max" from="235405527#0" to="1058962463"/>
    <trip id="veh158" type="veh_passenger" depart="962.39" departLane="best" departSpeed="max" from="1342428206" to="1058962463"/>
    <trip id="veh159" type="veh_passenger" depart="968.48" departLane="best" departSpeed="max" from="32236100#0" to="1058962463"/>
    <trip id="veh160" type="veh_passenger" depart="974.57" departLane="best" departSpeed="max" from="235405527#0" to="32236101"/>
    <trip id="veh161" type="veh_passenger" depart="980.66" departLane="best" departSpeed="max" from="37720482#0" to="1058962463"/>
    <trip id="veh162" type="veh_passenger" depart="986.75" departLane="best" departSpeed="max" from="37720482#0" to="204441762"/>
    <trip id="veh163" type="veh_passenger" depart="992.84" departLane="best" departSpeed="max" from="235405527#0" to="4239464"/>
    <trip id="veh164" type="veh_passenger" depart="998.93" departLane="best" departSpeed="max" from="37720482#0" to="1058962463"/>
    <trip id="veh165" type="veh_passenger" depart="1005.03" departLane="best" departSpeed="max" from="1342428206" to="4239464"/>
    <trip id="veh166" type="veh_passenger" depart="1011.12" departLane="best" departSpeed="max" from="235405527#0" to="204441762"/>
    <trip id="veh167" type="veh_passenger" depart="1017.21" departLane="best" departSpeed="max" from="235405527#0" to="204441762"/>
    <trip id="veh168" type="veh_passenger" depart="1023.30" departLane="best" departSpeed="max" from="37720482#0" to="1058962463"/>
    <trip id="veh169" type="veh_passenger" depart="1029.39" departLane="best" departSpeed="max" from="235405527#0" to="204441762"/>
    <trip id="veh170" type="veh_passenger" depart="1035.48" departLane="best" departSpeed="max" from="235405527#0" to="4239464"/>
    <trip id="veh171" type="veh_passenger" depart="1041.57" departLane="best" departSpeed="max" from="32236100#0" to="1058962463"/>
    <trip id="veh172" type="veh_passenger" depart="1047.66" departLane="best" departSpeed="max" from="1342428206" to="32236101"/>
    <trip id="veh173" type="veh_passenger" depart="1053.75" departLane="best" departSpeed="max" from="32236100#0" to="32236101"/>
    <trip id="veh174" type="veh_passenger" depart="1059.84" departLane="best" departSpeed="max" from="1342428206" to="204441762"/>
    <trip id="veh175" type="veh_passenger" depart="1065.94" departLane="best" departSpeed="max" from="37720482#0" to="204441762"/>
    <trip id="veh176" type="veh_passenger" depart="1072.03" departLane="best" departSpeed="max" from="37720482#0" to="4239464"/>
    <trip id="veh177" type="veh_passenger" depart="1078.12" departLane="best" departSpeed="max" from="235405527#0" to="1058962463"/>
    <trip id="veh178" type="veh_passenger" depart="1084.21" departLane="best" departSpeed="max" from="235405527#0" to="4239464"/>
    <trip id="veh179" type="veh_passenger" depart="1090.30" departLane="best" departSpeed="max" from="1342428206" to="4239464"/>
    <trip id="veh180" type="veh_passenger" depart="1096.39" departLane="best" departSpeed="max" from="32236100#0" to="4239464"/>
    <trip id="veh181" type="veh_passenger" depart="1102.48" departLane="best" departSpeed="max" from="32236100#0" to="1058962463"/>
    <trip id="veh182" type="veh_passenger" depart="1108.57" departLane="best" departSpeed="max" from="37720482#0" to="32236101"/>
    <trip id="veh183" type="veh_passenger" depart="1114.66" departLane="best" departSpeed="max" from="32236100#0" to="4239464"/>
    <trip id="veh184" type="veh_passenger" depart="1120.76" departLane="best" departSpeed="max" from="235405527#0" to="204441762"/>
    <trip id="veh185" type="veh_passenger" depart="1126.85" departLane="best" departSpeed="max" from="1342428206" to="4239464"/>
    <trip id="veh186" type="veh_passenger" depart="1132.94" departLane="best" departSpeed="max" from="32236100#0" to="4239464"/>
    <trip id="veh187" type="veh_passenger" depart="1139.03" departLane="best" departSpeed="max" from="37720482#0" to="4239464"/>
    <trip id="veh188" type="veh_passenger" depart="1145.12" departLane="best" departSpeed="max" from="37720482#0" to="4239464"/>
    <trip id="veh189" type="veh_passenger" depart="1151.21" departLane="best" departSpeed="max" from="37720482#0" to="1058962463"/>
    <trip id="veh190" type="veh_passenger" depart="1157.30" departLane="best" departSpeed="max" from="32236100#0" to="1058962463"/>
    <trip id="veh191" type="veh_passenger" depart="1163.39" departLane="best" departSpeed="max" from="235405527#0" to="4239464"/>
    <trip id="veh192" type="veh_passenger" depart="1169.48" departLane="best" departSpeed="max" from="37720482#0" to="4239464"/>
    <trip id="veh193" type="veh_passenger" depart="1175.57" departLane="best" departSpeed="max" from="235405527#0" to="1058962463"/>
    <trip id="veh194" type="veh_passenger" depart="1181.67" departLane="best" departSpeed="max" from="235405527#0" to="1058962463"/>
    <trip id="veh195" type="veh_passenger" depart="1187.76" departLane="best" departSpeed="max" from="235405527#0" to="4239464"/>
    <trip id="veh196" type="veh_passenger" depart="1193.85" departLane="best" departSpeed="max" from="235405527#0" to="1058962463"/>
    <trip id="veh197" type="veh_passenger" depart="1199.94" departLane="best" departSpeed="max" from="235405527#0" to="204441762"/>
    <trip id="veh198" type="veh_passenger" depart="1206.03" departLane="best" departSpeed="max" from="235405527#0" to="1058962463"/>
    <trip id="veh199" type="veh_passenger" depart="1212.12" departLane="best" departSpeed="max" from="32236100#0" to="32236101"/>
    <trip id="veh200" type="veh_passenger" depart="1218.21" departLane="best" departSpeed="max" from="1342428206" to="204441762"/>
    <trip id="veh201" type="veh_passenger" depart="1224.30" departLane="best" departSpeed="max" from="1342428206" to="32236101"/>
    <trip id="veh202" type="veh_passenger" depart="1230.39" departLane="best" departSpeed="max" from="1342428206" to="32236101"/>
    <trip id="veh203" type="veh_passenger" depart="1236.49" departLane="best" departSpeed="max" from="37720482#0" to="4239464"/>
    <trip id="veh204" type="veh_passenger" depart="1242.58" departLane="best" departSpeed="max" from="1342428206" to="1058962463"/>
    <trip id="veh205" type="veh_passenger" depart="1248.67" departLane="best" departSpeed="max" from="37720482#0" to="204441762"/>
    <trip id="veh206" type="veh_passenger" depart="1254.76" departLane="best" departSpeed="max" from="37720482#0" to="32236101"/>
    <trip id="veh207" type="veh_passenger" depart="1260.85" departLane="best" departSpeed="max" from="32236100#0" to="204441762"/>
    <trip id="veh208" type="veh_passenger" depart="1266.94" departLane="best" departSpeed="max" from="235405527#0" to="4239464"/>
    <trip id="veh209" type="veh_passenger" depart="1273.03" departLane="best" departSpeed="max" from="32236100#0" to="1058962463"/>
    <trip id="veh210" type="veh_passenger" depart="1279.12" departLane="best" departSpeed="max" from="37720482#0" to="204441762"/>
    <trip id="veh211" type="veh_passenger" depart="1285.21" departLane="best" departSpeed="max" from="37720482#0" to="4239464"/>
    <trip id="veh212" type="veh_passenger" depart="1291.31" departLane="best" departSpeed="max" from="1342428206" to="1058962463"/>
    <trip id="veh213" type="veh_passenger" depart="1297.40" departLane="best" departSpeed="max" from="32236100#0" to="204441762"/>